version 2
1
9
.tran .1n .05u{return}{return}{return}.kicad adjustpaths{return}.save all{return}.probe alli
2
1
V(Sine_Wave)
 
1
V(TLL_OUT)
 
